# NOTE: This database is based on the default Phreeqc.dat distributed with the PHREEQC program.
# It has been edited/ amended by Scott Brooks to include a number of master species, aqueous comnplexes, etc
# of interest in his research.  
#
# This is a living database and will be updated periodically.
#
# Last update: 13 May 2010

SOLUTION_MASTER_SPECIES
#
#element	species	alk	gfw_formula	element_gfw
#
H		H+	-1.0	H		1.008
H(0)		H2	0.0	H
H(1)		H+	-1.0	0.0
E		e-	0.0	0.0		0.0
O		H2O	0.0	O		16.0
O(0)		O2	0.0	O
O(-2)		H2O	0.0	0.0
Ca		Ca+2	0.0	Ca		40.08
Mg		Mg+2	0.0	Mg		24.312
Na		Na+	0.0	Na		22.9898
K		K+	0.0	K		39.102
Fe		Fe+2	0.0	Fe		55.847
Fe(+2)	Fe+2	0.0	Fe
Fe(+3)	Fe+3	-2.0	Fe
Mn		Mn+2	0.0	Mn		54.938
Mn(+2)	Mn+2	0.0	Mn
Mn(+3)	Mn+3	0.0	Mn
Al		Al+3	0.0	Al		26.9815
Ba		Ba+2	0.0	Ba		137.34
Sr		Sr+2	0.0	Sr		87.62
Si		H4SiO4	0.0	SiO2	28.0843
Cl		Cl-	0.0	Cl		35.453
C		CO3-2	2.0	HCO3		12.0111
C(+4)		CO3-2	2.0	HCO3
C(-4)		CH4	0.0	CH4
Alkalinity	CO3-2	1.0	Ca0.5(CO3)0.5	50.05
S		SO4-2	0.0	SO4		32.064
S(6)		SO4-2	0.0	SO4
S(-2)		HS-	1.0	S
S(+2)		S2O3-2	0.0	S 		# thiosulfate added by SCB 23 Feb 09
N		NO3-	0.0	N		14.0067
N(+5)		NO3-	0.0	N
N(+3)		NO2-	0.0	N
N(0)		N2	0.0	N
Amm		AmmH+	0.0	AmmH		18.039
B		H3BO3	0.0	B		10.81
P		PO4-3	2.0	P		30.9738
F		F-	0.0	F		18.9984
Li		Li+	0.0	Li		6.939
Br		Br-	0.0	Br		79.904
Zn		Zn+2	0.0	Zn		65.37
Cd		Cd+2	0.0	Cd		112.4
Ni		Ni+2	0.0	Ni		58.69
Pb		Pb+2	0.0	Pb		207.19
Co		Co+2	0.0	Co		58.9332
Co(+2)	Co+2	0.0	Co
Co(+3)	Co+3	0.0	Co
Cu		Cu+2	0.0	Cu		63.546
Cu(+2)	Cu+2	0.0	Cu
Cu(+1)	Cu+1	0.0	Cu
U		U+4	0.0	U		238.029 # U added SCB 10 Dec O2
U(+4)		U+4	0.0	U
U(+6)		UO2+2	0.0	U
Edta		Edta-4	0.0	Edta	288.2141 # SCB 22 Sept 03
Cdta		Cdta-4	0.0	Cdta	342.3061 # SCB 18 Mar 04
Citrate	Citrate-3   0.0	Citrate 189.1017 # SCB 9 JAN 06
Hg		Hg+2		0.0	Hg		200.59 # SCB 3 Apr 08
Mmm		Mmm+	0.0	Mmm	215.625 # Mmm = Mono methyl mercury # SCB 3 Apr 08
I		I-	0.0	I	126.904 # SCB 3 Apr 08
Dom		Dom-4	0.0	Dom	1000 # Dissolved organic matter # SCB 7 May 08
Rs          Rs-	0.0	Rs		1000.00  # RS generic thiol group in fulvic or humic acid, SCB added 13 May 10
Rcoo		Rcoo-	0.0	Rcoo		1100.00  # RCOO generic carboxylic or phenolic hroups in humic acid, SCB added 13 May 10
L		L-	0.0	L		121 # L denotes thiol group in Cysteine and Glutathione, WD added on July 08

SOLUTION_SPECIES

H+ = H+
	log_k	0.0
	-gamma	9.0	0.0

e- = e-
	log_k	0.0

H2O = H2O
	log_k	0.0

Ca+2 = Ca+2
	log_k	0.0
	-gamma	5.0	0.1650

Mg+2 = Mg+2
	log_k	0.0
	-gamma	5.5	0.20

Na+ = Na+
	log_k	0.0
	-gamma	4.0	0.075

K+ = K+
	log_k	0.0
	-gamma	3.5	0.015

Fe+2 = Fe+2
	log_k	0.0
	-gamma	6.0	0.0

Mn+2 = Mn+2
	log_k	0.0
	-gamma	6.0	0.0

Al+3 = Al+3
	log_k	0.0
	-gamma	9.0	0.0

Ba+2 = Ba+2
	log_k	0.0
	-gamma	5.0	0.0

Sr+2 = Sr+2
	log_k	0.0
	-gamma	5.260	0.121

H4SiO4 = H4SiO4
	log_k	0.0

Cl- = Cl-
	log_k	0.0
	-gamma	3.5	0.015

CO3-2 = CO3-2
	log_k	0.0
	-gamma	5.4	0.0

SO4-2 = SO4-2
	log_k	0.0
	-gamma	5.0	-0.04

NO3- = NO3-
	log_k	0.0
	-gamma	3.0	0.0

AmmH+ = AmmH+
	log_k	0.0
	-gamma	2.5	0.0

H3BO3 = H3BO3
	log_k	0.0

PO4-3 = PO4-3
	log_k	0.0
	-gamma	4.0	0.0

F- = F-
	log_k	0.0
	-gamma	3.5	0.0

Li+ = Li+
	log_k	0.0
	-gamma	6.0	0.0

Br- = Br-
	log_k	0.0
	-gamma	3.0	0.0

Zn+2 = Zn+2
	log_k	0.0
	-gamma	5.0	0.0

Cd+2 = Cd+2
	log_k	0.0

Ni+2 = Ni+2
	log_k 0.0

Pb+2 = Pb+2
	log_k	0.0

Cu+2 = Cu+2
	log_k	0.0
	-gamma	6.0	0.0

U+4 = U+4  # added SCB 10 Dec 02
	log_k 0.0

Edta-4 = Edta-4 # SCB added 24 Sept 03
	log_k 0.0

Cdta-4 = Cdta-4 # SCB added 18 Mar 04
	log_k 0.0

Citrate-3 = Citrate-3 # SCB added 9 JAN 06
	log_k 0.0

Co+2 = Co+2
	log_k 0.0 # SCB added 24 Sept 03

#Co+3 = Co+3
#	log_k 0.0 # SCB added 24 Sept 03

Hg+2 = Hg+2
	log_k 0.0 # SCB added 3 Apr 08

Mmm+ = Mmm+
	log_k 0.0 # SCB added 3 Apr 08

I- = I-
	log_k 0.0 # SCB added 3 Apr 08

Dom-4 = Dom-4
	log_k 0.0 # SCB added 7 May 08

Rs- = Rs-         # RS generic thiol group in fulvic or humic acid, SCB added 13 May 10
	log_k 0.0

Rcoo- = Rcoo-         # RCOO generic carboxylic or phenolic hroups in humic acid, SCB added 13 May 10
	log_k 0.0

L- = L-         # L generic carboxylic or phenolic hroups in humic acid, SCB added 13 May 10
	log_k 0.0

H2O = OH- + H+
	log_k	-14.0
	delta_h 13.362	kcal
	-analytic	-283.971	-0.05069842	13323.0	102.24447	-1119669.0
	-gamma	3.5	0.0

2 H2O = O2 + 4 H+ + 4 e-
	log_k	-86.08
	delta_h 134.79 kcal

2 H+ + 2 e- = H2
	log_k	-3.15
	delta_h -1.759

NO3- + H+ = HNO3
	log_k -1.30  # SCB added 21 Dec 04

CO3-2 + H+ = HCO3-
	log_k	10.329
	delta_h -3.561	kcal
	-analytic	107.8871	0.03252849	-5151.79	-38.92561	563713.9
	-gamma	5.4	0.0

CO3-2 + 2 H+ = CO2 + H2O
	log_k	16.681
	delta_h -5.738	kcal
	-analytic	464.1965	0.09344813	-26986.16	-165.75951	2248628.9

CO3-2 + 10 H+ + 8 e- = CH4 + 3 H2O
	log_k	41.071
	delta_h -61.039 kcal

SO4-2 + H+ = HSO4-
	log_k	1.988
	delta_h 3.85	kcal
	-analytic	-56.889	0.006473	2307.9	19.8858	0.0

HS- = S-2 + H+
	log_k	-17.4		# changed by SCB 23 Feb 09
	delta_h 12.1	kcal
	-gamma	5.0	0.0

SO4-2 + 9 H+ + 8 e- = HS- + 4 H2O
	log_k	33.65
	delta_h -60.140 kcal
	-gamma	3.5	0.0

HS- + H+ = H2S
	log_k	6.994
	delta_h -5.30	kcal

2 SO4-2 + 8 e- + 10 H+ = 1 S2O3-2 + 5 H2O
	log_k 18.68 			# SCB added 23 Feb 09

S2O3-2 + 1 H+ = HS2O3-
	log_k 1.6 				# SCB added 23 Feb 09

S2O3-2 + 2 H+ = H2S2O3
	log_k 2.2 				# SCB added 23 Feb 09

NO3- + 2 H+ + 2 e- = NO2- + H2O
	log_k	28.570
	delta_h -43.760 kcal
	-gamma	3.0	0.0

2 NO3- + 12 H+ + 10 e- = N2 + 6 H2O
	log_k	207.08
	delta_h -312.130	kcal

AmmH+ = Amm + H+
	log_k	-9.244
	delta_h 12.48	kcal

#NO3- + 10 H+ + 8 e- = AmmH+ + 3 H2O
#	log_k	119.077
#	delta_h -187.055	kcal
#	-gamma	2.5	0.0

AmmH+ + SO4-2 = AmmHSO4-
	log_k	1.11

H3BO3 = H2BO3- + H+
	log_k	-9.24
	delta_h 3.224	kcal

H3BO3 + F- = BF(OH)3-
	log_k	-0.4
	delta_h 1.850	kcal

H3BO3 + 2 F- + H+ = BF2(OH)2- + H2O
	log_k	7.63
	delta_h 1.618	kcal

H3BO3 + 2 H+ + 3 F- = BF3OH- + 2 H2O
	log_k	13.67
	delta_h -1.614	kcal

H3BO3 + 3 H+ + 4 F- = BF4- + 3 H2O
	log_k	20.28
	delta_h -1.846	kcal

PO4-3 + H+ = HPO4-2
	log_k	12.346
	delta_h -3.530	kcal
	-gamma	4.0	0.0

PO4-3 + 2 H+ = H2PO4-
	log_k	19.553
	delta_h -4.520	kcal
	-gamma	4.5	0.0

H+ + F- = HF
	log_k	3.18
	delta_h 3.18	kcal
	-analytic	-2.033	0.012645	429.01

H+ + 2 F- = HF2-
	log_k	3.76
	delta_h 4.550	kcal

Ca+2 + H2O = CaOH+ + H+
	log_k	-12.78

Ca+2 + CO3-2 = CaCO3
	log_k	3.224
	delta_h 3.545	kcal
	-analytic	-1228.732	-0.299440	35512.75	485.818

Ca+2 + CO3-2 + H+ = CaHCO3+
	log_k	11.435
	delta_h -0.871	kcal
	-analytic	1317.0071	0.34546894	-39916.84	-517.70761	563713.9
	-gamma	5.4	0.0

Ca+2 + SO4-2 = CaSO4
	log_k	2.3
	delta_h 1.650	kcal

Ca+2 + PO4-3 = CaPO4-
	log_k	6.459
	delta_h 3.10	kcal

Ca+2 + HPO4-2 = CaHPO4
	log_k	2.739
	delta_h 3.3 kcal

Ca+2 + H2PO4- = CaH2PO4+
	log_k	1.408
	delta_h 3.4 kcal

Ca+2 + F- = CaF+
	log_k	0.94
	delta_h 4.120	kcal

Mg+2 + H2O = MgOH+ + H+
	log_k	-11.44
	delta_h 15.952 kcal

Mg+2 + CO3-2 = MgCO3
	log_k	2.98
	delta_h 2.713	kcal
	-analytic	0.9910	0.00667

Mg+2 + H+ + CO3-2 = MgHCO3+
	log_k	11.399
	delta_h -2.771	kcal
	-analytic	48.6721	0.03252849	-2614.335	-18.00263	563713.9

Mg+2 + SO4-2 = MgSO4
	log_k	2.37
	delta_h 4.550	kcal

Mg+2 + PO4-3 = MgPO4-
	log_k	6.589
	delta_h 3.10	kcal

Mg+2 + HPO4-2 = MgHPO4
	log_k	2.87
	delta_h 3.3 kcal

Mg+2 + H2PO4- = MgH2PO4+
	log_k	1.513
	delta_h 3.4 kcal

Mg+2 + F- = MgF+
	log_k	1.82
	delta_h 3.20	kcal

Na+ + H2O = NaOH + H+
	log_k	-14.18

Na+ + CO3-2 = NaCO3-
	log_k	1.27
	delta_h 8.910	kcal

Na+ + HCO3- = NaHCO3
	log_k	-0.25

Na+ + SO4-2 = NaSO4-
	log_k	0.7
	delta_h 1.120	kcal

Na+ + HPO4-2 = NaHPO4-
	log_k	0.29

Na+ + F- = NaF
	log_k	-0.24

K+ + H2O = KOH + H+
	log_k	-14.46

K+ + SO4-2 = KSO4-
	log_k	0.85
	delta_h 2.250	kcal

K+ + HPO4-2 = KHPO4-
	log_k	0.29

Fe+2 + H2O = FeOH+ + H+
	log_k	-9.5
	delta_h 13.20	kcal

Fe+2 + Cl- = FeCl+
	log_k	0.14

Fe+2 + CO3-2 = FeCO3
	log_k	4.38

Fe+2 + HCO3- = FeHCO3+
	log_k	2.0

Fe+2 + SO4-2 = FeSO4
	log_k	2.25
	delta_h 3.230	kcal

Fe+2 + HSO4- = FeHSO4+
	log_k	1.08

Fe+2 + 2HS- = Fe(HS)2
	log_k	8.95

Fe+2 + 3HS- = Fe(HS)3-
	log_k	10.987

Fe+2 + HPO4-2 = FeHPO4
	log_k	3.6

Fe+2 + H2PO4- = FeH2PO4+
	log_k	2.7

Fe+2 + F- = FeF+
	log_k	1.0

Fe+2 = Fe+3 + e-
	log_k	-13.02
	delta_h 9.680	kcal
	-gamma	9.0	0.0

Fe+3 + H2O = FeOH+2 + H+
	log_k	-2.19
	delta_h 10.4	kcal

Fe+3 + 2 H2O = Fe(OH)2+ + 2 H+
	log_k	-5.67
	delta_h 17.1	kcal

Fe+3 + 3 H2O = Fe(OH)3 + 3 H+
	log_k	-12.56
	delta_h 24.8	kcal

Fe+3 + 4 H2O = Fe(OH)4- + 4 H+
	log_k	-21.6
	delta_h 31.9	kcal

2 Fe+3 + 2 H2O = Fe2(OH)2+4 + 2 H+
	log_k	-2.95
	delta_h 13.5	kcal

3 Fe+3 + 4 H2O = Fe3(OH)4+5 + 4 H+
	log_k	-6.3
	delta_h 14.3	kcal

Fe+3 + Cl- = FeCl+2
	log_k	1.48
	delta_h 5.6	kcal

Fe+3 + 2 Cl- = FeCl2+
	log_k	2.13

Fe+3 + 3 Cl- = FeCl3
	log_k	1.13

Fe+3 + SO4-2 = FeSO4+
	log_k	4.04
	delta_h 3.91	kcal

Fe+3 + HSO4- = FeHSO4+2
	log_k	2.48

Fe+3 + 2 SO4-2 = Fe(SO4)2-
	log_k	5.38
	delta_h 4.60	kcal

Fe+3 + HPO4-2 = FeHPO4+
	log_k	5.43
	delta_h 5.76	kcal

Fe+3 + H2PO4- = FeH2PO4+2
	log_k	5.43

Fe+3 + F- = FeF+2
	log_k	6.2
	delta_h 2.7	kcal

Fe+3 + 2 F- = FeF2+
	log_k	10.8
	delta_h 4.8	kcal

Fe+3 + 3 F- = FeF3
	log_k	14.0
	delta_h 5.4	kcal

Mn+2 + H2O = MnOH+ + H+
	log_k	-10.59
	delta_h 14.40	kcal

Mn+2 + Cl- = MnCl+
	log_k	0.61

Mn+2 + 2 Cl- = MnCl2
	log_k	0.25

Mn+2 + 3 Cl- = MnCl3-
	log_k	-0.31

Mn+2 + CO3-2 = MnCO3
	log_k	4.9

Mn+2 + HCO3- = MnHCO3+
	log_k	1.95

Mn+2 + SO4-2 = MnSO4
	log_k	2.25
	delta_h 3.370	kcal

Mn+2 + 2 NO3- = Mn(NO3)2
	log_k	0.6
	delta_h -0.396	kcal

Mn+2 + F- = MnF+
	log_k	0.84

Mn+2 = Mn+3 + e-
	log_k	-25.51
	delta_h 25.80	kcal

Al+3 + H2O = AlOH+2 + H+
	log_k	-5.0
	delta_h 11.49	kcal
	-analytic	-38.253	0.0	-656.27	14.327

Al+3 + 2 H2O = Al(OH)2+ + 2 H+
	log_k	-10.1
	delta_h 26.90	kcal
	-analytic	88.50	0.0	-9391.6	-27.121

Al+3 + 3 H2O = Al(OH)3 + 3 H+
	log_k	-16.9
	delta_h 39.89	kcal
	-analytic	226.374	0.0	-18247.8	-73.597

Al+3 + 4 H2O = Al(OH)4- + 4 H+
	log_k	-22.7
	delta_h 42.30	kcal
	-analytic	51.578	0.0	-11168.9	-14.865

Al+3 + SO4-2 = AlSO4+
	log_k	3.5
	delta_h 2.29 kcal

Al+3 + 2SO4-2 = Al(SO4)2-
	log_k	5.0
	delta_h 3.11 kcal

Al+3 + HSO4- = AlHSO4+2
	log_k	0.46

Al+3 + F- = AlF+2
	log_k	7.0
	delta_h 1.060	kcal

Al+3 + 2 F- = AlF2+
	log_k	12.7
	delta_h 1.980	kcal

Al+3 + 3 F- = AlF3
	log_k	16.8
	delta_h 2.160	kcal

Al+3 + 4 F- = AlF4-
	log_k	19.4
	delta_h 2.20	kcal

Al+3 + 5 F- = AlF5-2
	log_k	20.6
	delta_h 1.840	kcal

Al+3 + 6 F- = AlF6-3
	log_k	20.6
	delta_h -1.670	kcal

H4SiO4 = H3SiO4- + H+
	log_k	-9.83
	delta_h 6.12	kcal
	-analytic	-302.3724	-0.050698	15669.69	108.18466	-1119669.0

H4SiO4 = H2SiO4-2 + 2 H+
	log_k	-23.0
	delta_h 17.6	kcal
	-analytic	-294.0184	-0.072650	11204.49	108.18466	-1119669.0

H4SiO4 + 4 H+ + 6 F- = SiF6-2 + 4 H2O
	log_k	30.18
	delta_h -16.260	kcal

Ba+2 + H2O = BaOH+ + H+
	log_k	-13.47

Ba+2 + CO3-2 = BaCO3
	log_k	2.71
	delta_h 3.55	kcal
	-analytic	0.113	0.008721

Ba+2 + HCO3- = BaHCO3+
	log_k	0.982
	delta_h 5.56 kcal
	-analytical	-3.0938	0.013669	0.0	0.0	0.0

Ba+2 + SO4-2 = BaSO4
	log_k	2.7

Sr+2 + H2O = SrOH+ + H+
	log_k	-13.29
	-gamma	5.0	0.0

Sr+2 + CO3-2 + H+ = SrHCO3+
	log_k	11.509
	delta_h 2.489	kcal
	-analytic	104.6391	0.04739549	-5151.79	-38.92561	563713.9
	-gamma	5.4	0.0

Sr+2 + CO3-2 = SrCO3
	log_k	2.81
	delta_h 5.22	kcal
	-analytic	-1.019	0.012826

Sr+2 + SO4-2 = SrSO4
	log_k	2.29
	delta_h 2.08	kcal

Li+ + H2O = LiOH + H+
	log_k	-13.64

Li+ + SO4-2 = LiSO4-
	log_k	0.64

Co+2 = Co+3 + e- # added SCB 26 Sep 03
	log_k	-32.98

Cu+2 + e- = Cu+
	log_k	2.72
	delta_h 1.65	kcal
	-gamma	2.5	0.0

Cu+2 + H2O = CuOH+ + H+
	log_k	-8.0
	-gamma	4.0	0.0

Cu+2 + 2 H2O = Cu(OH)2 + 2 H+
	log_k	-13.68

Cu+2 + 3 H2O = Cu(OH)3- + 3 H+
	log_k	-26.9

Cu+2 + 4 H2O = Cu(OH)4-2 + 4 H+
	log_k	-39.6

Cu+2 + SO4-2 = CuSO4
	log_k	2.31
	delta_h 1.220	kcal

Zn+2 + H2O = ZnOH+ + H+
	log_k	-8.96
	delta_h 13.4 kcal

Zn+2 + 2 H2O = Zn(OH)2 + 2 H+
	log_k	-16.9

Zn+2 + 3 H2O = Zn(OH)3- + 3 H+
	log_k	-28.4

Zn+2 + 4 H2O = Zn(OH)4-2 + 4 H+
	log_k	-41.2

Zn+2 + Cl- = ZnCl+
	log_k	0.43
	delta_h 7.79 kcal

Zn+2 + 2 Cl- = ZnCl2
	log_k	0.45
	delta_h 8.5 kcal

Zn+2 + 3Cl- = ZnCl3-
	log_k	0.5
	delta_h 9.56 kcal

Zn+2 + 4Cl- = ZnCl4-2
	log_k	0.2
	delta_h 10.96 kcal

Zn+2 + CO3-2 = ZnCO3
	log_k	5.3

Zn+2 + 2CO3-2 = Zn(CO3)2-2
	log_k	9.63

Zn+2 + HCO3- = ZnHCO3+
	log_k	2.1

Zn+2 + SO4-2 = ZnSO4
	log_k	2.37
	delta_h 1.36 kcal

Zn+2 + 2SO4-2 = Zn(SO4)2-2
	log_k	3.28

Cd+2 + H2O = CdOH+ + H+
	log_k	-10.08
	delta_h 13.1 kcal

Cd+2 + 2 H2O = Cd(OH)2 + 2 H+
	log_k	-20.35

Cd+2 + 3 H2O = Cd(OH)3- + 3 H+
	log_k	-33.3

Cd+2 + 4 H2O = Cd(OH)4-2 + 4 H+
	log_k	-47.35

Cd+2 + Cl- = CdCl+
	log_k	1.98
	delta_h 0.59 kcal

Cd+2 + 2 Cl- = CdCl2
	log_k	2.6
	delta_h 1.24 kcal

Cd+2 + 3 Cl- = CdCl3-
	log_k	2.4
	delta_h 3.9 kcal

Cd+2 + CO3-2 = CdCO3
	log_k	2.9

Cd+2 + 2CO3-2 = Cd(CO3)2-2
	log_k	6.4

Cd+2 + HCO3- = CdHCO3+
	log_k	1.5

Cd+2 + SO4-2 = CdSO4
	log_k	2.46
	delta_h 1.08 kcal

Cd+2 + 2SO4-2 = Cd(SO4)2-2
	log_k	3.5

Pb+2 + H2O = PbOH+ + H+
	log_k	-7.71

Pb+2 + 2 H2O = Pb(OH)2 + 2 H+
	log_k	-17.12

Pb+2 + 3 H2O = Pb(OH)3- + 3 H+
	log_k	-28.06

Pb+2 + 4 H2O = Pb(OH)4-2 + 4 H+
	log_k	-39.7

2 Pb+2 + H2O = Pb2OH+3 + H+
	log_k	-6.36

Pb+2 + Cl- = PbCl+
	log_k	1.6
	delta_h 4.38 kcal

Pb+2 + 2 Cl- = PbCl2
	log_k	1.8
	delta_h 1.08 kcal

Pb+2 + 3 Cl- = PbCl3-
	log_k	1.7
	delta_h 2.17 kcal

Pb+2 + 4 Cl- = PbCl4-2
	log_k	1.38
	delta_h 3.53 kcal

Pb+2 + CO3-2 = PbCO3
	log_k	7.24

Pb+2 + 2 CO3-2 = Pb(CO3)2-2
	log_k	10.64

Pb+2 + HCO3- = PbHCO3+
	log_k	2.9

Pb+2 + SO4-2 = PbSO4
	log_k	2.75

Pb+2 + 2 SO4-2 = Pb(SO4)2-2
	log_k	3.47

Pb+2 + NO3- = PbNO3+
	log_k	1.17

#===
# start
# U aqueous species added to database
# SCB 10 Dec 02
# revised 15 Aug 06
#===
#
# U(IV) species
#
U+4 + H2O = UOH+3 + H+
	log_k -0.54
	delta_h 11.211 kcal

U+4 + 2 H2O = U(OH)2+2 + 2 H+
	log_k -1.1

U+4 + 3 H2O = U(OH)3+ + 3 H+
	log_k -4.7

U+4 + 4 H2O = U(OH)4 + 4 H+
	log_k -10.00

# U+4 + 5 H2O = U(OH)5- + 5 H+ # no evidence for existence
#	log_k -16.5419
#	delta_h 27.850 kcal

U+4 + 2 H2O = UO2+2 + 4 H+ + 2e-
	log_k -9.038

U+4 + Cl- = UCl+3
	log_k 1.720
	delta_h -4.541 kcal

U+4 + 5 CO3-2 = U(CO3)5-6
	log_k 34.000
	delta_h -4.78 kcal

U+4 + 4 CO3-2 = U(CO3)4-4
	log_k 35.12

U+4 + SO4-2 = USO4+2
	log_k 6.580
	delta_h 1.912 kcal

U+4 + 2 SO4-2 = U(SO4)2
	log_k 10.51
	delta_h 7.8153 kcal

#
# U(VI) species
#

UO2+2 + H2O = UO2OH+ + H+
	log_k -5.250

UO2+2 + 2 H2O = UO2(OH)2 + 2H+
	log_k -12.150

UO2+2 + 3 H2O = UO2(OH)3- + 3 H+
	log_k -20.250

UO2+2 + 4 H2O = UO2(OH)4-2 + 4 H+
	log_k -32.400

2 UO2+2 + H2O = (UO2)2OH+3 + H+
	log_k -2.7

2 UO2+2 + 2 H2O = (UO2)2(OH)2+2 + 2 H+
	log_k -5.620

3 UO2+2 + 4 H2O = (UO2)3(OH)4+2 + 4 H+
	log_k -11.9

3 UO2+2 + 5 H2O = (UO2)3(OH)5+ + 5 H+
	log_k -15.550

3 UO2+2 + 7 H2O = (UO2)3(OH)7- + 7 H+
	log_k -32.200

UO2+2 + Cl- = UO2Cl+
	log_k 0.17
	delta_h 1.912 kcal

UO2+2 + 2 Cl- = UO2Cl2
	log_k -1.1
	delta_h 3.585

#
# Carbonate Species
#

UO2+2 + CO3-2 = UO2CO3
	log_k 9.94
	delta_h 1.195

UO2+2 + 2 CO3-2 = UO2(CO3)2-2
	log_k 16.610
	delta_h 4.4215 kcal

UO2+2 + 3 CO3-2 = UO2(CO3)3-4
	log_k 21.840
	delta_h -9.3688 kcal

3 UO2+2 + 6 CO3-2 = (UO2)3(CO3)6-6
	log_k 54.000
	delta_h -14.9853 kcal

2 UO2+2 + CO3-2 + 3 H2O = (UO2)2CO3(OH)3- + 3 H+
	log_k -0.855


#
# Ca-U-CO3 complex from Bernhard et al. (1996) and Kalmykov and Choppin (2000)
# and Bernhard et al. (2001)
#
#UO2+2 + 3 CO3-2 + Ca+2 = CaUO2(CO3)3-2
#	log_k 27.18 # Dong and Brooks
	# log_k = 25.4 # Bernhard et al.

#UO2+2 + 3 CO3-2 + 2 Ca+2 = Ca2UO2(CO3)3
#	log_k 30.70 # Dong and Brooks
	# log_k 30.55 # Bernhard et al.

#UO2+2 + 3 CO3-2 + Mg+2 = MgUO2(CO3)3-2
#	log_k 25.8 # updated 08 Aug 2007

UO2+2 + 3 CO3-2 + Sr+2 = SrUO2(CO3)3-2
	log_k 26.86

UO2+2 + 3 CO3-2 + Ba+2 = BaUO2(CO3)3-2
	log_k 26.68

UO2+2 + 3 CO3-2 + 2 Ba+2 = Ba2UO2(CO3)3
	log_k 29.75

#

UO2+2 + SO4-2 = UO2SO4
	log_k 3.150
	delta_h 4.6605 kcal

UO2+2 + 2 SO4-2 = UO2(SO4)2-2
	log_k 4.14
	delta_h 8.3889 kcal

UO2+2 + 3 SO4-2 = UO2(SO4)3-4
	log_k 3.02

UO2+2 + NO3- = UO2NO3+
	log_k 0.3

UO2+2 + PO4-3 = UO2PO4-
	log_k 13.23

UO2+2 + H+ + PO4-3 = UO2HPO4
	log_k 19.59

UO2+2 + 2 H+ + PO4-3 = UO2H2PO4+
	log_k 22.822

UO2+2 + 4 H+ + 2 PO4-3 = UO2(H2PO4)2
	log_k 44.044

#===
# end : added U aqueous species
#===

#===
# start : EDTA added SCB - 22 Sep 03
# updated per NEA database; 30 Dec 05
#===
Edta-4 + H+ = HEdta-3
	log_k 	11.24	
	delta_h -4.732 kcal
Edta-4 + 2 H+ = H2Edta-2
	log_k		18.04
	delta_h -8.365 kcal
Edta-4 + 3 H+ = H3Edta-
	log_k		21.19
	delta_h -6.668 kcal
Edta-4 + 4 H+ = H4Edta
	log_k		23.42
	delta_h -6.214 kcal
Edta-4 + 5 H+ = H5Edta+
	log_k		24.72
Edta-4 + 6 H+ = H6Edta+2
	log_k 	24.22
Edta-4 + Co+2 = CoEdta-2
	log_k		18.3
Edta-4 + Co+2 + H+ = CoHEdta-
	log_k		21.6
Edta-4 + Co+3 = CoEdta-
	log_k		43.9
Edta-4 + Co+3 + H+ = CoHEdta
	log_k		46.58
Edta-4 + Cd+2 = CdEdta-2
	log_k 18.1
	delta_h -8.8 kcal
Edta-4 + Cd+2 + H+ = CdHEdta-
	log_k		21.429
	delta_h -0.4 kcal
Edta-4 + Na+ = NaEdta-3
	log_k		2.8
	delta_h -0.956 kcal
Edta-4 + K+ = KEdta-3
	log_k = 1.8
Edta-4 + Mg+2 = MgEdta-2
	log_k		10.9
	delta_h 4.732 kcal
Edta-4 + Mg+2 + H+ = MgHEdta-
	log_k		15.74
Edta-4 + Ca+2 = CaEdta-2
	log_k		 12.69
	delta_h -5.306 kcal
Edta-4 + Ca+2 + H+ = CaHEdta-
	log_k		 16.23
Edta-4 + Sr+2 = SrEdta-2
	log_k		10.43
Edta-4 + Sr+2 + H+ = SrHEdta-
	log_k		14.79
Edta-4 + U+4 = UEdta
	log_k		29.5
Edta-4 + UO2+2 = UO2Edta--
	log_k		13.7
Edta-4 + UO2+2 + H+ = UO2HEdta-
	log_k		19.61
Edta-4 + 2 UO2+2 = (UO2)2Edta
	log_k		20.6
#===
# end : EDTA added SCB - 22 Sep 03
# updated per NEA database; 30 Dec 05
#===

#===
# start : Cdta added SCB - 18 Mar 04
#===
Cdta-4 + H+ = HCdta-3
	log_k 12.3
	delta_h -6.6 kcal
Cdta-4 +2 H+ = H2Cdta-2
	log_k 19.87
	delta_h -2.1 kcal
Cdta-4 + 3 H+ = H3Cdta-
	log_k 23.79
Cdta-4 + 4 H+ = H4Cdta
	log_k 26.40
Cdta-4 + Mg+2 = MgCdta-2
	log_k 12.71
	delta_h +4.6 kcal
Cdta-4 + Ca+2 = CaCdta-2
	log_k 14.81
	delta_h -3.6 kcal
Cdta-4 + Sr+2 = SrCdta-2
	log_k 12.21
	delta_h -0.7 kcal
Cdta-4 + Ba+2 = BaCdta-2
	log_k 10.3
	delta_h +0.3 kcal
Cdta-4 + U+4 = UCdta
	log_k 31.03
2 UCdta + 2 OH- = U2(OH)2Cdta2-2
	log_k 33.6
#===
# end : Cdta
#===

#=== 
# start : Citrate added by SCB 9 JAN 06
#===
Citrate-3 + H+ = HCitrate-2
	log_k 6.36
	delta_h +0.7887 kcal
Citrate-3 + 2 H+ = H2Citrate-
	log_k 11.14
	delta_h +0.215 kcal
Citrate-3 + 3 H+ = H3Citrate
	log_k 14.27
	delta_h -0.86 kcal
Citrate-3 + Mg+2 = MgCitrate-
	log_k 4.81
Citrate-3 + Mg+2 + H+ = MgHCitrate
	log_k 8.96
Citrate-3 + Mg+2 + 2 H+ = MgH2Citrate+
	log_k 12.45
Citrate-3 + Ca+2 = CaCitrate-
	log_k 4.8
Citrate-3 + Ca+2 + H+ = CaHCitrate
	log_k 9.28
Citrate-3 + Ca+2 + 2H+ = CaH2Citrate+
	log_k 12.67
Citrate-3 + UO2+2 =UO2Citrate-
	log_k 8.96
2 Citrate-3 + 2 UO2+2 = (UO2)2Citrate2-2
	log_k 21.3
Citrate-3 + UO2+2 + H+ = UO2HCitrate
	log_k 11.36
Citrate-3 + Pb+2 = PbCitrate-
	log_k 7.27
2 Citrate-3 + Pb+2 = Pb(Citrate)2-4
	log_k 6.53
Citrate-3 + Al+3 = AlCitrate
	log_k 9.97
2 Citrate-3 + Al+3 = Al(Citrate)2-3
	log_k 14.8
Citrate-3 + Al+3 + H+ = AlHCitrate+
	log_k 12.85
Citrate-3 + Zn+2 = ZnCitrate-
	log_k 6.21
2 Citrate-3 + Zn+2 = Zn(Citrate)2-4
	log_k 7.4
Citrate-3 + Zn+2 + H+ = ZnHCitrate
	log_k 10.2
Citrate-3 + Zn+2 + 2 H+ = ZnH2Citrate+
	log_k 12.84
Citrate-3 + Sr+2 = SrCitrate-
	log_k 4.34
Citrate-3 + Sr+2 + H+ = SrHCitrate
	log_k 8.97
Citrate-3 + Sr+2 + 2 H+ = SrH2Citrate+
	log_k 12.49
Citrate-3 + Na+ = NaCitrate-2
	log_k 1.03
Citrate-3 + 2 Na+ = Na2Citrate-
	log_k 1.50
Citrate-3 + Na+ + H+ = NaHCitrate-
	log_k 6.45
Citrate-3 + K+ = KCitrate-2
	log_k 1.1
Citrate-3 + Fe+3 = FeCitrate
	log_k 13.1
Citrate-3 + Fe+3 + H+ = FeHCitrate+
	log_k 14.4
Citrate-3 + Fe+2 = FeCitrate-
	log_k 6.1
Citrate-3 + Fe+2 + H+ = FeHCitrate
	log_k 10.2
Citrate-3 + Mn+2 = MnCitrate-
	log_k 4.28
Citrate-3 + Mn+2 + H+ = MnHCitrate
	log_k 9.6
Citrate-3 + Co+2 = CoCitrate-
	log_k 6.49
Citrate-3 + Co+2 + H+ = CoHCitrate
	log_k 10.44
Citrate-3 + Co+2 + 2 H+ = CoH2Citrate+
	log_k 12.79
Citrate-3 + Cd+2 = CdCitrate-
	log_k 4.98
Citrate-3 + Cd+2 + H+ = CdHCitrate
	log_k 9.44
Citrate-3 + Cd+2 + 2 H+ = CdH2Citrate+
	log_k 12.90
2 Citrate-3 + Cd+2 = Cd(Citrate)2-4
	log_k 5.9
Citrate-3 + Cu+2 = CuCitrate-
	log_k 7.57
2 Citrate-3 + Cu+2 = Cu(Citrate)2-4
	log_k 8.9
Citrate-3 + Cu+2 + H+ = CuHCitrate
	log_k 10.87
Citrate-3 + Cu+2 + 2 H+ = CuH2Citrate+
	log_k 13.23
2 Citrate-3 + 2 Cu+2 = Cu2(Citrate)2-2
	log_k 16.9

#
Dom-4 + H+ = HDom-3
	log_k 10	# SCB 7 May 08
		# pKa thiol group in DOM after Benoit et al. 2001. GCA. 65(24):4445-4451.

#=== 
# end : Citrate added by SCB 9 JAN 06
#===

AmmH+ + Cd++ = Cd(Amm)++ + 1 H+
	log_k -6.723
2 AmmH+ + Cd++ = Cd(Amm)2++ + 2 H+
	log_k -13.628
4 AmmH+ + Cd++ = Cd(Amm)4++ + 4 H+
	log_k -37.008

#===
# Start: Hg data added by SCB 3 APR 08; rev 13 May 10
#===
1Hg+2 + 1H2O - 1H+ = HgOH+
     log_k -3.397
     delta_h 4.97 kcal					
1Hg+2 + 2H2O - 2H+ = Hg(OH)2
     log_k -5.98
     delta_h 12.301 kcal					
1Hg+2 + 3H2O - 3H+ = Hg(OH)3-
     log_k -21.091
 					
2Hg+2 + 1H2O - 1H+ = Hg2OH+3
     log_k -3.297
     delta_h 3.346 kcal					
3Hg+2 + 3H2O - 3H+ = Hg3(OH)3+3
     log_k -6.391
 					
1Mmm+ + 1H2O - 1H+ = MmmOH
     log_k -4.557
     delta_h 4.97 kcal					
2Mmm+ + 1H2O - 1H+ = (Mmm)2OH+
     log_k -1.997
 					
1Hg+2 + 1CO3-2 = HgCO3
     log_k 11.47
 					
1Hg+2 + 2CO3-2 = Hg(CO3)2-2
     log_k 15.042
 					
1Hg+2 + 1H+ + 1CO3-2 = HgHCO3+
     log_k 15.805
 					
1Hg+2 + 1H2O - 1H+ + 1CO3-2 = HgOHCO3-
     log_k 5.33
 					
1Mmm+ + 1CO3-2 = MmmCO3-
     log_k 6.511
 					
1Hg+2 + 1NO3- = HgNO3+
     log_k -0.43
 					
1Hg+2 + 2NO3- = Hg(NO3)2
     log_k -0.81
 					
1Hg+2 - 1H+ + 1AmmH+ = HgAmm+2
     log_k -0.444
 					
1Hg+2 - 2H+ + 2AmmH+ = Hg(Amm)2+2
     log_k -0.688
     delta_h 0.359 kcal					
1Hg+2 - 3H+ + 3AmmH+ = Hg(Amm)3+2
     log_k -9.432
     delta_h 9.495 kcal					
1Hg+2 - 4H+ + 4AmmH+ = Hg(Amm)4+2
     log_k -17.676
     delta_h 18.392 kcal					
1Mmm+ - 1H+ + 1AmmH+ = MmmAmm+
     log_k -1.644
 								
1Hg+2 + 1PO4-3 = HgPO4-
     log_k 7.841

1Hg+2 + 1H+ + 1PO4-3 = HgHPO4
     log_k 20.056

1Mmm+ + 1H+ + 1PO4-3 = MmmHPO4-
     log_k 17.806

1Hg+2 + 1SO4-- = HgSO4
     log_k 2.42
 					
1Hg+2 + 2SO4-- = Hg(SO4)2-2
     log_k 3.48
 					
1Mmm+ + 1SO4-- = MmmSO4-1
     log_k 2.0
 					
1Hg+2 - 1H+ + 1HS- = HgS
     log_k 28.6
 					
1Hg+2 - 2H+ + 2HS- = HgS2-2
     log_k 24.73
 					
1Hg+2 + 2HS- = Hg(HS)2
     log_k 39.77
 					
1Hg+2 - 1H+ + 2HS- = HgHS2-
     log_k 33.44
 					
1Hg+2 + 1HS- = HgHS+
     log_k 20.5
 					
1Hg+2 - 4H2O + 3H+ + 5HS- + 2O2 = HgS5
     log_k 194.56
 					
1Hg+2 - 8H2O + 6H+ + 10HS- + 4O2 = Hg(S5)2-2
     log_k 352.0
 					
1Hg+2 - 3H2O + 2H+ + 5HS- + 2O2 = HgS5OH-
     log_k 185.98
 					
1Mmm+ - 1H+ + 1HS- = MmmS-
     log_k 7.0
 					
2Mmm+ - 1H+ + 1HS- = (Mmm)2S
     log_k 23.51
 					
3Mmm+ - 1H+ + 1HS- = (Mmm)3S+
     log_k 30.51
 					
#1Mmm+ 1SeO4-- = MmmSeO4 {-1}
#     log_k 1.62
 					
#1Hg+2 2SeO3-- = Hg(SeO3)2 {-2}
#     log_k 13.72
 					
#1Mmm+ 1SeO3-- = MmmSeO3 {-1}
#     log_k 6.96
 					
#1Mmm+ 1H+ 1SeO3-- = MmmHSeO3 {0}
#     log_k 11.35
 					
#1Hg+2 -1H+ 1HSe- = HgSe {0}
#     log_k 37.813
 					
#1Hg+2 -2H+ 2HSe- = HgSe2 {-2}
#     log_k 33.416
 					
#1Hg+2 -1H+ 2HSe- = HgHSe2 {-1}
#     log_k 39.413
 					
1Hg+2 + 1F- = HgF+
     log_k 1.57
     delta_h 0.955 kcal					
1Mmm+ + 1F- = MmmF
     log_k 1.71
 					
1Hg+2 + 1Cl- = HgCl+
     log_k 7.31
     delta_h -5.087 kcal					
1Hg+2 + 2Cl- = HgCl2
     log_k 14
     delta_h -11.727 kcal					
1Hg+2 + 3Cl- = HgCl3-
     log_k 14.925
     delta_h -11.847 kcal					
1Hg+2 + 4Cl- = HgCl4-2
     log_k 15.535
     delta_h -14.355 kcal					
1Hg+2 + 1H2O - 1H+ + 1Cl- = HgOHCl
     log_k 4.25
     delta_h -0.717 kcal					
1Hg+2 + 1Cl- + 1I- = HgClI
     log_k 19.158
     delta_h -22.829 kcal					
1Mmm+ + 1Cl- = MmmCl
     log_k 5.39
     delta_h -5.971 kcal					
#= EtHgCl {0}
#     log_k 0
 					
#= PhHgCl {0}
#     log_k 0
 					
1Hg+2 + 1Br- = HgBr+
     log_k 9.61
     delta_h -10.079 kcal					
1Hg+2 + 2Br- = HgBr2
     log_k 18.08
     delta_h -20.875 kcal					
1Hg+2 + 3Br- = HgBr3-
     log_k 20.51
     delta_h -23.67 kcal					
1Hg+2 + 4Br- = HgBr4-2
     log_k 21.74
     delta_h -27.228 kcal					
1Hg+2 + 1H2O - 1H+ + 1Br- = HgOHBr
     log_k 6.24
 					
1Hg+2 + 1Br- + 1I- = HgBrI
     log_k 21.12
     delta_h -26.643 kcal					
1Hg+2 + 1Br- + 3I- = HgBrI3-2
     log_k 28.02
 					
1Hg+2 + 2Br- + 2I- = HgBr2I2-2
     log_k 26.8
 					
1Mmm+ + 1Br- = MmmBr
     log_k 6.7
     delta_h -9.793 kcal					
#= PhHgBr {0}
#     log_k 0
 					
1Hg+2 + 1I- = HgI+
     log_k 13.41
     delta_h -17.077 kcal					
1Hg+2 + 2I- = HgI2
     log_k 24.63
     delta_h -34.155 kcal					
1Hg+2 + 3I- = HgI3-
     log_k 28.41
 					
1Hg+2 + 4I- = HgI4-2
     log_k 30.34
     delta_h -43.231 kcal					
1Hg+2 + 1H2O - 1H+ + 1I- = HgOHI
     log_k 9.41
 					
1Mmm+ + 1I- = MmmI
     log_k 8.71
 					
1Mmm+ + 2I- = MmmI2-
     log_k 9.18
 					
#= EtHgI {0}
#     log_k 0
 					
#= EtHgI2 {0}
#     log_k 0
 					
#= PhHgI {0}
#     log_k 0
 					
#1Hg+2 1CN- = HgCN {1}
#     log_k 17
#     delta_h -23.168 kcal					
#1Hg+2 2CN- = Hg(CN)2 {0}
#     log_k 32.75
#     delta_h -46.336 kcal					
#1Hg+2 3CN- = Hg(CN)3 {-1}
#     log_k 36.31
#     delta_h -53.263 kcal					
#1Hg+2 4CN- = Hg(CN)4 {-2}
#     log_k 39.87
#     delta_h -59.473 kcal					
#1Hg+2 1H2O -1H+ 1CN- = HgOHCN {0}
#     log_k 14.863
# 					
#1Mmm+ 1CN- = MmmCN {0}
#     log_k 14.01
#     delta_h -22.069 kcal					
#1Hg+2 1SCN- = HgCNS {1}
#     log_k 9.64
#     delta_h -11.68 kcal					
#1Hg+2 2SCN- = Hg(CNS)2 {0}
#     log_k 17.5
#     delta_h -24.123 kcal					
#1Hg+2 3SCN- = Hg(CNS)3 {-1}
#     log_k 20.31
#     delta_h -28.662 kcal					
#1Hg+2 4SCN- = Hg(CNS)4 {-2}
#     log_k 22.11
#     delta_h -33.677 kcal					
#1Hg+2 1H2O -1H+ 1SCN- = HgOHCNS {0}
#     log_k 3.5
#     delta_h -5.255 kcal					
#1Mmm+ 1SCN- = MmmCNS {0}
#     log_k -6.26
# 					
#2Mmm+ 1SCN- = (Mmm)2CNS {1}
#     log_k -7.91
# 					
#= HgCH3NH2 {0}
#     log_k 0
# 					
#= Hg(CH3NH2)2 {0}
#     log_k 0
# 					
#= Hg(CH3NH2)3 {0}
#     log_k 0
# 					
#= Hg(CH3NH2)4 {0}
#     log_k 0
# 					
#= HgClCH3NH2 {0}
#     log_k 0
# 					
#= HgCl(CH3NH2)2 {0}
#     log_k 0
# 					
#= MmmCH3NH2 {0}
#     log_k 0
# 					
1Hg+2 + 1Edta-4 = HgEdta-2
     log_k 23.22
     delta_h -18.869 kcal					
1Hg+2 + 1H+ + 1Edta-4 = HgHEdta-
     log_k 26.85
     delta_h -19.347 kcal					
1Hg+2 + 2H+ + 1Edta-4 = HgH2Edta
     log_k 29.15
					
1Hg+2 + 1H2O - 1H+ + 1Edta-4 = HgOHEdta-3
     log_k 13.68
 					
#1Hg+2 + 1Nta-3 = HgNta-
#     log_k 15.59
# 					
#1Hg+2 -1H+ 1HOAc = HgOAc {1}
#     log_k -0.457
#     delta_h -4.015 kcal					
#1Hg+2 -2H+ 2HOAc = Hg(OAc)2 {0}
#     log_k -2.63
#     delta_h -7.337 kcal					
#1Mmm+ -1H+ 1HOAc = MmmOAc {0}
#     log_k 3.45
# 					
#2Mmm+ -1H+ 1HOAc = (Mmm)2OAc {1}
#     log_k 5.4
# 					
#1Hg+2 -2H+ 1H2Ox = HgC2O4 {0}
#     log_k 5.004
# 					
#1Mmm+ 1Pyr- = Mmm(C3H3O3) {1}
#     log_k 2.51
#
1Hg+2 + 1Citrate-3 = HgCitrate-
     log_k 12.19

1Hg+2 + Dom-4 = HgDom-2
	log_k 21.4
		# Hg rxn with thiol groups in DOM
		# after Benoit etal. 2001. GCA. 65(24):4445-4451

1 Hg+2 + 2 S2O3-2 = Hg(S2O3)2-2
	log_k 29.48

1 Hg+2 + 3 S2O3-2 = Hg(S2O3)3-4
	log_k 31.28

1 Mmm+ + 1 S2O3-2 = MmmS2O3-
	log_k 11.18

# === Added by SCB 13 May 10, after Dong etal. 2010 EnvironChem 7(1):94-102

Rs- + H+ = RsH
	log_k 10

Hg+2 + Rs- = HgRs+
	log_k 21

Hg+2 + 2 Rs- = Hg(Rs)2
	log_k 28.7

Rcoo- + H+ = RcooH
	log_k 4.5

Hg+2 + Rcoo- = HgRcoo+
	log_k 10

Mmm+ + Rs- = MmmRs
	log_k 14

#===
# End: Hg data added by SCB 3 APR 08; rev 13 May Feb10
#===


#===
# Start : added metals with Cysteine and Glutathione, added by WD July 08
#===

L- + H+ = HL
	log_k 10

Hg+2 + L- = HgL+
	log_k 21.27

Hg+2 + 2 L- = HgL2
	log_k 34.04

Mmm+ + L- = MmmL
	log_k 16.76

Ca+2 + L- = CaL+
	log_k 4.3

Mg+2 + L- = MgL+
	log_k 3.61

Zn+2 + L- = ZnL+
	log_k 9.69

Zn+2 + 2 L- = ZnL2
	log_k 16.1

Cu+2 + L- = CuL+
	log_k 12

Cu+2 + 2 L- = CuL2
	log_k 16.95

Ni+2 + L- = NiL+
	log_k 9.72

Ni+2 + 2 L- = NiL2
	log_k 15.96

Cd+2 + L- = CdL+
	log_k 10.62

Cd+2 + 2 L- = CdL2
	log_k 17.48

Pb+2 + L- = PbL+
	log_k 11.83

Pb+2 + 2 L- = PbL2
	log_k 15.86

Co+2 + L- = CoL+
	log_k 9.0

Co+2 + 2 L- = CoL2
	log_k 15.34

UO2+2 + 2 L- = UO2L2
	log_k 10.19

Fe+3 + L- = FeL+2
	log_k 12.28

Fe+3 + 2 L- = FeL2+
	log_k 16.40

#===
# End Cysteine & Glutathione
#===

PHASES

Calcite
	CaCO3 = CO3-2 + Ca+2
	log_k	-8.48
	delta_h -2.297 kcal
	-analytic	-171.9065	-0.077993	2839.319	71.595

Aragonite
	CaCO3 = CO3-2 + Ca+2
	log_k	-8.336